
     RDKit          3D

 16 16  0  0  0  0  0  0  0  0999 V2000
    1.6309   -1.8142   -1.0552 O   0  0  0  0  0  0  0  0  0  0  0  0
    1.4351   -0.7143   -0.4832 C   0  0  0  0  0  0  0  0  0  0  0  0
    2.5626    0.0738   -0.1348 N   0  0  0  0  0  0  0  0  0  0  0  0
    3.7935   -0.3979   -0.4355 O   0  0  0  0  0  0  0  0  0  0  0  0
    0.0659   -0.2442   -0.1766 C   0  0  0  0  0  0  0  0  0  0  0  0
   -1.0334   -1.0058   -0.5130 C   0  0  0  0  0  0  0  0  0  0  0  0
   -2.2941   -0.5467   -0.2172 C   0  0  0  0  0  0  0  0  0  0  0  0
   -2.4816    0.6779    0.4181 C   0  0  0  0  0  0  0  0  0  0  0  0
   -1.3520    1.4031    0.7343 C   0  0  0  0  0  0  0  0  0  0  0  0
   -0.1298    0.9275    0.4320 N   0  0  0  0  0  0  0  0  0  0  0  0
    2.4351    1.0056    0.3479 H   0  0  0  0  0  0  0  0  0  0  0  0
    4.3823    0.3143   -0.8024 H   0  0  0  0  0  0  0  0  0  0  0  0
   -0.8844   -1.9535   -1.0048 H   0  0  0  0  0  0  0  0  0  0  0  0
   -3.1800   -1.1366   -0.4761 H   0  0  0  0  0  0  0  0  0  0  0  0
   -3.4872    1.0369    0.6503 H   0  0  0  0  0  0  0  0  0  0  0  0
   -1.4630    2.3742    1.2363 H   0  0  0  0  0  0  0  0  0  0  0  0
  1  2  2  0
  2  3  1  0
  3  4  1  0
  2  5  1  0
  5  6  2  0
  6  7  1  0
  7  8  2  0
  8  9  1  0
  9 10  2  0
 10  5  1  0
  3 11  1  0
  4 12  1  0
  6 13  1  0
  7 14  1  0
  8 15  1  0
  9 16  1  0
M  END
$$$$
