
     RDKit          3D

 15 15  0  0  0  0  0  0  0  0999 V2000
    2.4160    1.5263    3.8854 N   0  0  0  0  0  0  0  0  0  0  0  0
    1.8419    1.1689    2.9447 C   0  0  0  0  0  0  0  0  0  0  0  0
    1.1179    0.7306    1.7625 C   0  0  0  0  0  0  0  0  0  0  0  0
    0.1660   -0.2194    1.8246 N   0  0  0  0  0  0  0  0  0  0  0  0
   -0.5064   -0.6285    0.7350 C   0  0  0  0  0  0  0  0  0  0  0  0
   -0.2340   -0.0773   -0.4907 C   0  0  0  0  0  0  0  0  0  0  0  0
   -0.9586   -0.5144   -1.6802 C   0  0  0  0  0  0  0  0  0  0  0  0
   -1.9480   -1.5096   -1.5817 N   0  0  0  0  0  0  0  0  0  0  0  0
   -0.6834    0.0146   -2.7990 O   0  0  0  0  0  0  0  0  0  0  0  0
    0.7121    0.8732   -0.5791 N   0  0  0  0  0  0  0  0  0  0  0  0
    1.3734    1.2691    0.5200 C   0  0  0  0  0  0  0  0  0  0  0  0
    2.6068    2.5158    0.3720 Cl  0  0  0  0  0  0  0  0  0  0  0  0
   -1.2713   -1.3935    0.7917 H   0  0  0  0  0  0  0  0  0  0  0  0
   -2.0518   -2.2242   -2.3180 H   0  0  0  0  0  0  0  0  0  0  0  0
   -2.5806   -1.5316   -0.7671 H   0  0  0  0  0  0  0  0  0  0  0  0
  1  2  3  0
  2  3  1  0
  3  4  2  0
  4  5  1  0
  5  6  2  0
  6  7  1  0
  7  8  1  0
  7  9  2  0
  6 10  1  0
 10 11  2  0
 11 12  1  0
 11  3  1  0
  5 13  1  0
  8 14  1  0
  8 15  1  0
M  END
$$$$
