
     RDKit          3D

 15 16  0  0  0  0  0  0  0  0999 V2000
   -2.7770    1.0085    0.5176 N   0  0  0  0  0  0  0  0  0  0  0  0
   -1.4690    0.5271    0.2682 C   0  0  0  0  0  0  0  0  0  0  0  0
   -0.3868    0.9818    0.9537 N   0  0  0  0  0  0  0  0  0  0  0  0
    0.8445    0.4846    0.6728 C   0  0  0  0  0  0  0  0  0  0  0  0
    2.4536    0.8042    1.3194 S   0  0  0  0  0  0  0  0  0  0  0  0
    3.2502   -0.4515    0.1611 C   0  0  0  0  0  0  0  0  0  0  0  0
    2.3687   -0.8224   -0.3979 N   0  0  0  0  0  0  0  0  0  0  0  0
    1.0872   -0.4721   -0.2803 C   0  0  0  0  0  0  0  0  0  0  0  0
   -0.0252   -0.9187   -0.9633 C   0  0  0  0  0  0  0  0  0  0  0  0
   -0.0058   -1.7931   -1.8737 O   0  0  0  0  0  0  0  0  0  0  0  0
   -1.2204   -0.4071   -0.6604 N   0  0  0  0  0  0  0  0  0  0  0  0
   -3.2593    0.7281    1.3930 H   0  0  0  0  0  0  0  0  0  0  0  0
   -3.1950    1.6322   -0.2068 H   0  0  0  0  0  0  0  0  0  0  0  0
    4.4222   -0.5592    0.2760 H   0  0  0  0  0  0  0  0  0  0  0  0
   -2.0878   -0.7426   -1.1795 H   0  0  0  0  0  0  0  0  0  0  0  0
  1  2  1  0
  2  3  2  0
  3  4  1  0
  4  5  1  0
  5  6  1  0
  6  7  2  0
  7  8  1  0
  8  9  1  0
  9 10  2  0
  9 11  1  0
 11  2  1  0
  8  4  2  0
  1 12  1  0
  1 13  1  0
  6 14  1  0
 11 15  1  0
M  END
$$$$
