
     RDKit          3D

 22 22  0  0  0  0  0  0  0  0999 V2000
   -4.0421    0.0442   -0.2877 C   0  0  0  0  0  0  0  0  0  0  0  0
   -2.5437   -0.1901   -0.4730 C   0  0  0  0  0  0  0  0  0  0  0  0
   -1.9208   -0.1064    0.8947 C   0  0  0  0  0  0  0  0  0  0  0  0
   -0.5384   -0.3005    0.8996 O   0  0  0  0  0  0  0  0  0  0  0  0
    0.3843    0.4544    0.2405 C   0  0  0  0  0  0  0  0  0  0  0  0
   -0.0160    1.4260   -0.4463 O   0  0  0  0  0  0  0  0  0  0  0  0
    1.8279    0.2144    0.2735 C   0  0  0  0  0  0  0  0  0  0  0  0
    2.3817   -0.8219    0.9931 C   0  0  0  0  0  0  0  0  0  0  0  0
    3.6942   -1.0857    1.0572 N   0  0  0  0  0  0  0  0  0  0  0  0
    4.5406   -0.2836    0.3704 C   0  0  0  0  0  0  0  0  0  0  0  0
    4.0360    0.7751   -0.3710 C   0  0  0  0  0  0  0  0  0  0  0  0
    2.6936    0.9956   -0.3996 N   0  0  0  0  0  0  0  0  0  0  0  0
   -4.2509    0.9284    0.3307 H   0  0  0  0  0  0  0  0  0  0  0  0
   -4.4707   -0.8335    0.2646 H   0  0  0  0  0  0  0  0  0  0  0  0
   -4.5759    0.0718   -1.2608 H   0  0  0  0  0  0  0  0  0  0  0  0
   -2.4205   -1.1730   -0.9416 H   0  0  0  0  0  0  0  0  0  0  0  0
   -2.1934    0.5805   -1.1656 H   0  0  0  0  0  0  0  0  0  0  0  0
   -2.3681   -0.9503    1.4961 H   0  0  0  0  0  0  0  0  0  0  0  0
   -2.2550    0.8153    1.3991 H   0  0  0  0  0  0  0  0  0  0  0  0
    1.7047   -1.4578    1.5382 H   0  0  0  0  0  0  0  0  0  0  0  0
    5.6017   -0.4952    0.4209 H   0  0  0  0  0  0  0  0  0  0  0  0
    4.7307    1.3922   -0.9039 H   0  0  0  0  0  0  0  0  0  0  0  0
  1  2  1  0
  2  3  1  0
  3  4  1  0
  4  5  1  0
  5  6  2  0
  5  7  1  0
  7  8  2  0
  8  9  1  0
  9 10  2  0
 10 11  1  0
 11 12  2  0
 12  7  1  0
  1 13  1  0
  1 14  1  0
  1 15  1  0
  2 16  1  0
  2 17  1  0
  3 18  1  0
  3 19  1  0
  8 20  1  0
 10 21  1  0
 11 22  1  0
M  END
$$$$
