
     RDKit          3D

 24 26  0  0  0  0  0  0  0  0999 V2000
    2.8088   -1.2579    0.0164 C   0  0  0  0  0  0  0  0  0  0  0  0
    3.1084    0.0849    0.1253 C   0  0  0  0  0  0  0  0  0  0  0  0
    2.0349    0.9544    0.1308 C   0  0  0  0  0  0  0  0  0  0  0  0
    0.7258    0.5089    0.0325 C   0  0  0  0  0  0  0  0  0  0  0  0
    0.4535   -0.8404   -0.0754 C   0  0  0  0  0  0  0  0  0  0  0  0
    1.5080   -1.7127   -0.0820 C   0  0  0  0  0  0  0  0  0  0  0  0
   -0.8325   -1.5845   -0.1933 C   0  0  0  0  0  0  0  0  0  0  0  0
   -1.9693   -0.6785   -0.5986 C   0  0  0  0  0  0  0  0  0  0  0  0
   -2.3333    0.2823    0.5294 C   0  0  0  0  0  0  0  0  0  0  0  0
   -1.5968    1.5155    0.2656 N   0  0  0  0  0  0  0  0  0  0  0  0
   -2.0941    2.7288    0.1934 N   0  0  0  0  0  0  0  0  0  0  0  0
   -1.0828    3.5381   -0.0608 N   0  0  0  0  0  0  0  0  0  0  0  0
    0.0421    2.8502   -0.1491 N   0  0  0  0  0  0  0  0  0  0  0  0
   -0.2680    1.5684    0.0553 C   0  0  0  0  0  0  0  0  0  0  0  0
    3.6511   -1.9639    0.0105 H   0  0  0  0  0  0  0  0  0  0  0  0
    4.1367    0.4149    0.2011 H   0  0  0  0  0  0  0  0  0  0  0  0
    2.1986    2.0041    0.2123 H   0  0  0  0  0  0  0  0  0  0  0  0
    1.3639   -2.7689   -0.1630 H   0  0  0  0  0  0  0  0  0  0  0  0
   -1.1201   -2.0462    0.7749 H   0  0  0  0  0  0  0  0  0  0  0  0
   -0.7648   -2.3846   -0.9694 H   0  0  0  0  0  0  0  0  0  0  0  0
   -1.7638   -0.1073   -1.5237 H   0  0  0  0  0  0  0  0  0  0  0  0
   -2.8415   -1.3272   -0.8222 H   0  0  0  0  0  0  0  0  0  0  0  0
   -1.9553   -0.2165    1.4679 H   0  0  0  0  0  0  0  0  0  0  0  0
   -3.4096    0.4381    0.6222 H   0  0  0  0  0  0  0  0  0  0  0  0
  1  2  2  0
  2  3  1  0
  3  4  2  0
  4  5  1  0
  5  6  2  0
  5  7  1  0
  7  8  1  0
  8  9  1  0
  9 10  1  0
 10 11  1  0
 11 12  2  0
 12 13  1  0
 13 14  2  0
  6  1  1  0
 14 10  1  0
 14  4  1  0
  1 15  1  0
  2 16  1  0
  3 17  1  0
  6 18  1  0
  7 19  1  0
  7 20  1  0
  8 21  1  0
  8 22  1  0
  9 23  1  0
  9 24  1  0
M  END
$$$$
