
     RDKit          3D

 15 15  0  0  0  0  0  0  0  0999 V2000
   -2.1429    0.4336   -0.6099 C   0  0  0  0  0  0  0  0  0  0  0  0
   -1.4729   -0.6402    0.2216 C   0  0  0  0  0  0  0  0  0  0  0  0
   -0.0335   -0.4321    0.0993 N   0  0  0  0  0  0  0  0  0  0  0  0
    0.9133   -1.1536   -1.1045 S   0  0  0  0  0  0  0  0  0  0  0  0
    2.5175   -0.4179   -0.5809 C   0  0  0  0  0  0  0  0  0  0  0  0
    4.0443   -0.6606   -1.3169 Cl  0  0  0  0  0  0  0  0  0  0  0  0
    2.0942    0.3362    0.5222 C   0  0  0  0  0  0  0  0  0  0  0  0
    3.3406    1.2787    1.4144 Cl  0  0  0  0  0  0  0  0  0  0  0  0
    0.7875    0.2942    0.8252 C   0  0  0  0  0  0  0  0  0  0  0  0
    0.2736    0.9595    1.8369 O   0  0  0  0  0  0  0  0  0  0  0  0
   -1.5152    1.3627   -0.5016 H   0  0  0  0  0  0  0  0  0  0  0  0
   -3.1512    0.6586   -0.2227 H   0  0  0  0  0  0  0  0  0  0  0  0
   -2.1484    0.1392   -1.6786 H   0  0  0  0  0  0  0  0  0  0  0  0
   -1.7672   -0.5307    1.2726 H   0  0  0  0  0  0  0  0  0  0  0  0
   -1.7397   -1.6277   -0.1772 H   0  0  0  0  0  0  0  0  0  0  0  0
  1  2  1  0
  2  3  1  0
  3  4  1  0
  4  5  1  0
  5  6  1  0
  5  7  2  0
  7  8  1  0
  7  9  1  0
  9 10  2  0
  9  3  1  0
  1 11  1  0
  1 12  1  0
  1 13  1  0
  2 14  1  0
  2 15  1  0
M  END
$$$$
