
     RDKit          3D

 19 19  0  0  0  0  0  0  0  0999 V2000
   -3.1340   -1.4990   -1.6058 N   0  0  0  0  0  0  0  0  0  0  0  0
   -2.7952   -0.9574   -0.5971 C   0  0  0  0  0  0  0  0  0  0  0  0
   -2.3773   -0.2642    0.6586 C   0  0  0  0  0  0  0  0  0  0  0  0
   -1.0310    0.2996    0.3462 C   0  0  0  0  0  0  0  0  0  0  0  0
   -0.7836    1.6107    0.0507 C   0  0  0  0  0  0  0  0  0  0  0  0
    0.5110    2.0049   -0.2839 C   0  0  0  0  0  0  0  0  0  0  0  0
    1.5585    1.0831   -0.3219 C   0  0  0  0  0  0  0  0  0  0  0  0
    1.2943   -0.2461   -0.0215 C   0  0  0  0  0  0  0  0  0  0  0  0
    2.3673   -1.2519   -0.0809 C   0  0  0  0  0  0  0  0  0  0  0  0
    2.5234   -1.7373   -1.3703 F   0  0  0  0  0  0  0  0  0  0  0  0
    3.5855   -0.7107    0.3332 F   0  0  0  0  0  0  0  0  0  0  0  0
    2.1305   -2.3486    0.7371 F   0  0  0  0  0  0  0  0  0  0  0  0
    0.0120   -0.6132    0.3042 C   0  0  0  0  0  0  0  0  0  0  0  0
   -2.2871   -0.9434    1.4993 H   0  0  0  0  0  0  0  0  0  0  0  0
   -3.1242    0.5427    0.8191 H   0  0  0  0  0  0  0  0  0  0  0  0
   -1.6012    2.3110    0.0955 H   0  0  0  0  0  0  0  0  0  0  0  0
    0.7375    3.0383   -0.5099 H   0  0  0  0  0  0  0  0  0  0  0  0
    2.5679    1.3582   -0.5835 H   0  0  0  0  0  0  0  0  0  0  0  0
   -0.1544   -1.6766    0.5310 H   0  0  0  0  0  0  0  0  0  0  0  0
  1  2  3  0
  2  3  1  0
  3  4  1  0
  4  5  2  0
  5  6  1  0
  6  7  2  0
  7  8  1  0
  8  9  1  0
  9 10  1  0
  9 11  1  0
  9 12  1  0
  8 13  2  0
 13  4  1  0
  3 14  1  0
  3 15  1  0
  5 16  1  0
  6 17  1  0
  7 18  1  0
 13 19  1  0
M  END
$$$$
