
     RDKit          3D

 21 23  0  0  0  0  0  0  0  0999 V2000
    5.2255   -0.0918    0.9339 N   0  0  0  0  0  0  0  0  0  0  0  0
    4.1799   -0.3224    0.5108 C   0  0  0  0  0  0  0  0  0  0  0  0
    2.8613   -0.5916   -0.0184 C   0  0  0  0  0  0  0  0  0  0  0  0
    1.7930    0.1380    0.4885 C   0  0  0  0  0  0  0  0  0  0  0  0
    0.5477   -0.1377   -0.0281 C   0  0  0  0  0  0  0  0  0  0  0  0
    0.3669   -1.1065   -1.0170 C   0  0  0  0  0  0  0  0  0  0  0  0
    1.4598   -1.8077   -1.4916 C   0  0  0  0  0  0  0  0  0  0  0  0
    2.6789   -1.5305   -0.9783 N   0  0  0  0  0  0  0  0  0  0  0  0
   -0.9477   -1.1334   -1.3032 N   0  0  0  0  0  0  0  0  0  0  0  0
   -1.6405   -0.2387   -0.5593 C   0  0  0  0  0  0  0  0  0  0  0  0
   -2.9393    0.1075   -0.4745 N   0  0  0  0  0  0  0  0  0  0  0  0
   -3.3893    1.0497    0.3651 C   0  0  0  0  0  0  0  0  0  0  0  0
   -2.4911    1.6960    1.1794 C   0  0  0  0  0  0  0  0  0  0  0  0
   -1.1551    1.3632    1.1151 C   0  0  0  0  0  0  0  0  0  0  0  0
   -0.7027    0.3777    0.2327 C   0  0  0  0  0  0  0  0  0  0  0  0
    1.9730    0.8762    1.2495 H   0  0  0  0  0  0  0  0  0  0  0  0
    1.3039   -2.5612   -2.2619 H   0  0  0  0  0  0  0  0  0  0  0  0
   -1.4391   -1.7426   -2.0019 H   0  0  0  0  0  0  0  0  0  0  0  0
   -4.4305    1.3352    0.4412 H   0  0  0  0  0  0  0  0  0  0  0  0
   -2.8293    2.4785    1.8849 H   0  0  0  0  0  0  0  0  0  0  0  0
   -0.4254    1.8421    1.7332 H   0  0  0  0  0  0  0  0  0  0  0  0
  1  2  3  0
  2  3  1  0
  3  4  2  0
  4  5  1  0
  5  6  2  0
  6  7  1  0
  7  8  2  0
  6  9  1  0
  9 10  1  0
 10 11  2  0
 11 12  1  0
 12 13  2  0
 13 14  1  0
 14 15  2  0
  8  3  1  0
 15 10  1  0
 15  5  1  0
  4 16  1  0
  7 17  1  0
  9 18  1  0
 12 19  1  0
 13 20  1  0
 14 21  1  0
M  END
$$$$
